# Programatically generated file.
#
# Units:
# - dimension: metre
# - force: newton
#
# Dimension order is
# - x: longitudinal
# - y: vertical
# - z: transverse

wipe

model basic -ndm 3 -ndf 6

# node nodeTag x y z
# Begin deck nodes
node 1 0.0 0 -16.6
node 2 5.0 0 -16.6
node 3 11.575 0 -16.6
node 4 14.675 0 -16.6
node 5 20.775 0 -16.6
node 6 26.875 0 -16.6
node 7 29.975 0 -16.6
node 8 36.075 0 -16.6
node 9 42.175 0 -16.6
node 10 45.275 0 -16.6
node 11 51.375 0 -16.6
node 12 57.475 0 -16.6
node 13 60.575 0 -16.6
node 14 66.675 0 -16.6
node 15 72.775 0 -16.6
node 16 75.875 0 -16.6
node 17 81.975 0 -16.6
node 18 88.075 0 -16.6
node 19 91.175 0 -16.6
node 20 96.9625 0 -16.6
# ... 715 like lines cut
# End deck nodes

# node nodeTag x y z
# Begin support nodes
node 736 13.125 -3.5 -13.5
node 737 13.125 -3.5 -12.771849
node 738 13.125 -3.5 -12.771358
node 739 13.125 -3.5 -12.67365
node 740 13.125 -3.5 -12.673159
node 741 13.125 -3.5 -11.7
node 742 13.125 -3.5 -5.1
node 743 13.125 -3.5 -4.838298
node 744 13.125 -3.5 -4.837807
node 745 13.125 -3.5 -4.740098
node 746 13.125 -3.5 -4.739607
node 747 13.125 -3.5 -3.556792
node 748 13.125 -3.5 -3.556301
node 749 13.125 -3.5 -3.3
node 750 13.125 -3.5 3.3
node 751 13.125 -3.5 3.556301
node 752 13.125 -3.5 3.556792
node 753 13.125 -3.5 4.739607
node 754 13.125 -3.5 4.740098
node 755 13.125 -3.5 4.837807
# ... 148 like lines cut
# End support nodes

# fix nodeTag x y z rx ry rz
# Begin fixed deck nodes
fix 1 0 1 1 0 0 0
fix 21 0 1 1 0 0 0
fix 22 0 1 1 0 0 0
fix 42 0 1 1 0 0 0
fix 43 0 1 1 0 0 0
fix 63 0 1 1 0 0 0
fix 64 0 1 1 0 0 0
fix 84 0 1 1 0 0 0
fix 85 0 1 1 0 0 0
fix 105 0 1 1 0 0 0
fix 106 0 1 1 0 0 0
fix 126 0 1 1 0 0 0
fix 127 0 1 1 0 0 0
fix 147 0 1 1 0 0 0
fix 148 0 1 1 0 0 0
fix 168 0 1 1 0 0 0
fix 169 0 1 1 0 0 0
fix 189 0 1 1 0 0 0
fix 190 0 1 1 0 0 0
fix 210 0 1 1 0 0 0
# ... 50 like lines cut
# End fixed deck nodes



# section ElasticMembranePlateSection secTag youngs_modulus poisson_ratio depth mass_density
# Begin deck sections
nDMaterial ElasticOrthotropic 20 38400000000.0 38400000000.0 38400000000.0 0.2 0.2 0.2 16000000000.0 16000000000.0 16000000000.0 0.0027240000000000003
section PlateFiber 20 20 0.75
nDMaterial ElasticOrthotropic 40 38400000000.0 38400000000.0 38400000000.0 0.2 0.2 0.2 16000000000.0 16000000000.0 16000000000.0 0.0027240000000000003
section PlateFiber 40 40 0.74
nDMaterial ElasticOrthotropic 80 38400000000.0 38400000000.0 38400000000.0 0.2 0.2 0.2 16000000000.0 16000000000.0 16000000000.0 0.002637
section PlateFiber 80 80 0.655
nDMaterial ElasticOrthotropic 100 38400000000.0 38400000000.0 38400000000.0 0.2 0.2 0.2 16000000000.0 16000000000.0 16000000000.0 0.0026639999999999997
section PlateFiber 100 100 0.589
nDMaterial ElasticOrthotropic 120 38400000000.0 38400000000.0 38400000000.0 0.2 0.2 0.2 16000000000.0 16000000000.0 16000000000.0 0.003143
section PlateFiber 120 120 0.5
nDMaterial ElasticOrthotropic 140 38400000000.0 38400000000.0 38400000000.0 0.2 0.2 0.2 16000000000.0 16000000000.0 16000000000.0 0.003124
section PlateFiber 140 140 0.5
nDMaterial ElasticOrthotropic 200 41291000000.0 41291000000.0 41291000000.0 0.2 0.2 0.2 17204583333.333336 17204583333.333336 17204583333.333336 0.002845
section PlateFiber 200 200 0.5
nDMaterial ElasticOrthotropic 220 41291000000.0 41291000000.0 41291000000.0 0.2 0.2 0.2 17204583333.333336 17204583333.333336 17204583333.333336 0.002765
section PlateFiber 220 220 0.65
nDMaterial ElasticOrthotropic 240 38400000000.0 38400000000.0 38400000000.0 0.2 0.2 0.2 16000000000.0 16000000000.0 16000000000.0 0.00298
section PlateFiber 240 240 0.65
nDMaterial ElasticOrthotropic 260 38400000000.0 38400000000.0 38400000000.0 0.2 0.2 0.2 16000000000.0 16000000000.0 16000000000.0 0.0029950000000000003
section PlateFiber 260 260 0.65
nDMaterial ElasticOrthotropic 280 38400000000.0 38400000000.0 38400000000.0 0.2 0.2 0.2 16000000000.0 16000000000.0 16000000000.0 0.0026309999999999997
section PlateFiber 280 280 0.739
nDMaterial ElasticOrthotropic 300 38400000000.0 38400000000.0 38400000000.0 0.2 0.2 0.2 16000000000.0 16000000000.0 16000000000.0 0.002617
section PlateFiber 300 300 0.787
nDMaterial ElasticOrthotropic 380 47277000000.0 47277000000.0 47277000000.0 0.2 0.2 0.2 19698750000.0 19698750000.0 19698750000.0 0.0029070000000000003
section PlateFiber 380 380 0.65
nDMaterial ElasticOrthotropic 400 38400000000.0 38400000000.0 38400000000.0 0.2 0.2 0.2 16000000000.0 16000000000.0 16000000000.0 0.002617
section PlateFiber 400 400 0.787
nDMaterial ElasticOrthotropic 420 38400000000.0 38400000000.0 38400000000.0 0.2 0.2 0.2 16000000000.0 16000000000.0 16000000000.0 0.0026309999999999997
section PlateFiber 420 420 0.739
nDMaterial ElasticOrthotropic 440 38400000000.0 38400000000.0 38400000000.0 0.2 0.2 0.2 16000000000.0 16000000000.0 16000000000.0 0.0029950000000000003
section PlateFiber 440 440 0.65
nDMaterial ElasticOrthotropic 460 38400000000.0 38400000000.0 38400000000.0 0.2 0.2 0.2 16000000000.0 16000000000.0 16000000000.0 0.00298
section PlateFiber 460 460 0.65
nDMaterial ElasticOrthotropic 480 41291000000.0 41291000000.0 41291000000.0 0.2 0.2 0.2 17204583333.333336 17204583333.333336 17204583333.333336 0.002765
section PlateFiber 480 480 0.65
nDMaterial ElasticOrthotropic 540 41291000000.0 41291000000.0 41291000000.0 0.2 0.2 0.2 17204583333.333336 17204583333.333336 17204583333.333336 0.002845
section PlateFiber 540 540 0.5
nDMaterial ElasticOrthotropic 560 38400000000.0 38400000000.0 38400000000.0 0.2 0.2 0.2 16000000000.0 16000000000.0 16000000000.0 0.003124
section PlateFiber 560 560 0.5
# ... 10 like lines cut
# End deck sections

# section ElasticMembranePlateSection secTag youngs_modulus poisson_ratio depth mass_density
# Begin pier sections
nDMaterial ElasticOrthotropic 968 38400000000.0 38400000000.0 38400000000.0 0.2 0.2 0.2 16000000000.0 16000000000.0 16000000000.0 0.0027240000000000003
section PlateFiber 968 968 0.362
# End pier sections

# element ShellMITC4 eleTag iNode jNode kNode lNode secTag
# Begin deck shell elements
element ShellMITC4 1 1 2 23 22 20
element ShellMITC4 2 2 3 24 23 20
element ShellMITC4 3 3 4 25 24 20
element ShellMITC4 4 4 5 26 25 20
element ShellMITC4 5 5 6 27 26 20
element ShellMITC4 6 6 7 28 27 20
element ShellMITC4 7 7 8 29 28 20
element ShellMITC4 8 8 9 30 29 20
element ShellMITC4 9 9 10 31 30 20
element ShellMITC4 10 10 11 32 31 20
element ShellMITC4 11 11 12 33 32 20
element ShellMITC4 12 12 13 34 33 20
element ShellMITC4 13 13 14 35 34 20
element ShellMITC4 14 14 15 36 35 20
element ShellMITC4 15 15 16 37 36 20
element ShellMITC4 16 16 17 38 37 20
element ShellMITC4 17 17 18 39 38 20
element ShellMITC4 18 18 19 40 39 20
element ShellMITC4 19 19 20 41 40 20
element ShellMITC4 20 20 21 42 41 20
# ... 660 like lines cut
# End deck shell elements

# element ShellMITC4 eleTag iNode jNode kNode lNode secTag
# Begin pier shell elements
element ShellMITC4 681 66 736 737 87 968
element ShellMITC4 682 87 737 738 108 968
element ShellMITC4 683 108 738 739 129 968
element ShellMITC4 684 129 739 740 150 968
element ShellMITC4 685 150 740 741 171 968
element ShellMITC4 686 67 736 737 88 968
element ShellMITC4 687 88 737 738 109 968
element ShellMITC4 688 109 738 739 130 968
element ShellMITC4 689 130 739 740 151 968
element ShellMITC4 690 151 740 741 172 968
element ShellMITC4 691 192 742 743 213 968
element ShellMITC4 692 213 743 744 234 968
element ShellMITC4 693 234 744 745 255 968
element ShellMITC4 694 255 745 746 276 968
element ShellMITC4 695 276 746 747 297 968
element ShellMITC4 696 297 747 748 318 968
element ShellMITC4 697 318 748 749 339 968
element ShellMITC4 698 193 742 743 214 968
element ShellMITC4 699 214 743 744 235 968
element ShellMITC4 700 235 744 745 256 968
# ... 268 like lines cut
# End pier shell elements

# node nodeTag x y z
# Begin Duplicate nodes at bottom of each pier
node 904 43.725 -3.5 -13.5
node 905 43.725 -3.5 -12.771849
node 906 43.725 -3.5 -12.771358
node 907 43.725 -3.5 -12.67365
node 908 43.725 -3.5 -12.673159
node 909 43.725 -3.5 -11.7
node 910 43.725 -3.5 -5.1
node 911 43.725 -3.5 -4.838298
node 912 43.725 -3.5 -4.837807
node 913 43.725 -3.5 -4.740098
node 914 43.725 -3.5 -4.739607
node 915 43.725 -3.5 -3.556792
node 916 43.725 -3.5 -3.556301
node 917 43.725 -3.5 -3.3
node 918 43.725 -3.5 3.3
node 919 43.725 -3.5 3.556301
node 920 43.725 -3.5 3.556792
node 921 43.725 -3.5 4.739607
node 922 43.725 -3.5 4.740098
node 923 43.725 -3.5 4.837807
# ... 36 like lines cut
# End Duplicate nodes at bottom of each pier

# uniaxialMaterial Elastic matId E
# Begin Spring stiffnesses at the bottom of the piers
uniaxialMaterial Elastic 1 202.264167
uniaxialMaterial Elastic 2 202.400556
uniaxialMaterial Elastic 3 27.2775
uniaxialMaterial Elastic 3 27.2775
uniaxialMaterial Elastic 4 270.458333
uniaxialMaterial Elastic 5 270.321944
uniaxialMaterial Elastic 6 72.695
uniaxialMaterial Elastic 7 72.831389
uniaxialMaterial Elastic 8 27.277778
uniaxialMaterial Elastic 9 27.277778
uniaxialMaterial Elastic 10 328.696111
uniaxialMaterial Elastic 11 328.696111
uniaxialMaterial Elastic 12 71.331111
uniaxialMaterial Elastic 13 71.194722
uniaxialMaterial Elastic 13 71.194722
uniaxialMaterial Elastic 12 71.331111
uniaxialMaterial Elastic 11 328.696111
uniaxialMaterial Elastic 10 328.696111
uniaxialMaterial Elastic 9 27.277778
uniaxialMaterial Elastic 8 27.277778
# ... 36 like lines cut
# End Spring stiffnesses at the bottom of the piers

# element zeroLength eleTag iNode jNode -mat matTag1 -dir_ dir1
# Begin Spring stiffnesses at the bottom of the piers
element zeroLength 1 904 792 -mat 1 -dir 6 
element zeroLength 1 905 793 -mat 2 -dir 6 
element zeroLength 1 906 794 -mat 3 -dir 6 
element zeroLength 1 907 795 -mat 3 -dir 6 
element zeroLength 1 908 796 -mat 4 -dir 6 
element zeroLength 1 909 797 -mat 5 -dir 6 
element zeroLength 1 910 798 -mat 6 -dir 6 
element zeroLength 1 911 799 -mat 7 -dir 6 
element zeroLength 1 912 800 -mat 8 -dir 6 
element zeroLength 1 913 801 -mat 9 -dir 6 
element zeroLength 1 914 802 -mat 10 -dir 6 
element zeroLength 1 915 803 -mat 11 -dir 6 
element zeroLength 1 916 804 -mat 12 -dir 6 
element zeroLength 1 917 805 -mat 13 -dir 6 
element zeroLength 1 918 806 -mat 13 -dir 6 
element zeroLength 1 919 807 -mat 12 -dir 6 
element zeroLength 1 920 808 -mat 11 -dir 6 
element zeroLength 1 921 809 -mat 10 -dir 6 
element zeroLength 1 922 810 -mat 9 -dir 6 
element zeroLength 1 923 811 -mat 8 -dir 6 
# ... 36 like lines cut
# End Spring stiffnesses at the bottom of the piers



timeSeries Linear 1

pattern Plain 1 1 {
# load nodeTag N_x N_y N_z N_rx N_ry N_rz
# Begin loads
load 359 0 100 0 0 0 0
# End loads



}

recorder Element -file generated-data/bridge-705-10,0-healthy/opensees-responses/bridge-705-10,0-healthy-params=5,-0,-100--forces.out -ele 1 2 3 4 5 6 7 8 9 10 11 12 13 14 15 16 17 18 19 20 21 22 23 24 25 26 27 28 29 30 31 32 33 34 35 36 37 38 39 40 41 42 43 44 45 46 47 48 49 50 51 52 53 54 55 56 57 58 59 60 61 62 63 64 65 66 67 68 69 70 71 72 73 74 75 76 77 78 79 80 81 82 83 84 85 86 87 88 89 90 

# recorder Node -file path -node nodeTags -dof direction disp
# Begin translation recorders
recorder Node -file generated-data/bridge-705-10,0-healthy/opensees-responses/bridge-705-10,0-healthy-params=5,-0,-100-node-x.out -node 1 2 3 4 5 6 7 8 9 10 11 12 13 14 15 16 17 18 19 20 21 22 23 24 25 26 27 28 29 30 31 32 33 34 35 36 37 38 39 40 41 42 43 44 45 46 47 48 49 50 51 52 53 54 55 56 57 58 59 60 61 62 63 64 65 66 67 68 69 70 71 72 73 74 75 76 77 78 79 80 81 82 83 84 85 86 87 88 89 90 91 
recorder Node -file generated-data/bridge-705-10,0-healthy/opensees-responses/bridge-705-10,0-healthy-params=5,-0,-100-node-y.out -node 1 2 3 4 5 6 7 8 9 10 11 12 13 14 15 16 17 18 19 20 21 22 23 24 25 26 27 28 29 30 31 32 33 34 35 36 37 38 39 40 41 42 43 44 45 46 47 48 49 50 51 52 53 54 55 56 57 58 59 60 61 62 63 64 65 66 67 68 69 70 71 72 73 74 75 76 77 78 79 80 81 82 83 84 85 86 87 88 89 90 91 
recorder Node -file generated-data/bridge-705-10,0-healthy/opensees-responses/bridge-705-10,0-healthy-params=5,-0,-100-node-z.out -node 1 2 3 4 5 6 7 8 9 10 11 12 13 14 15 16 17 18 19 20 21 22 23 24 25 26 27 28 29 30 31 32 33 34 35 36 37 38 39 40 41 42 43 44 45 46 47 48 49 50 51 52 53 54 55 56 57 58 59 60 61 62 63 64 65 66 67 68 69 70 71 72 73 74 75 76 77 78 79 80 81 82 83 84 85 86 87 88 89 90 91 
# End translation recorders

recorder Element -file generated-data/bridge-705-10,0-healthy/opensees-responses/bridge-705-10,0-healthy-params=5,-0,-100--strain-1.out -ele 1 2 3 4 5 6 7 8 9 10 11 12 13 14 15 16 17 18 19 20 21 22 23 24 25 26 27 28 29 30 31 32 33 34 35 36 37 38 39 40 41 42 43 44 45 46 47 48 49 50 51 52 53 54 55 56 57 58 59 60 61 62 63 64 65 66 67 68 69 70 71 72 73 74 75 76 77 78 79 80 81 82 83 84 85 86 87 88 89 9
recorder Element -file generated-data/bridge-705-10,0-healthy/opensees-responses/bridge-705-10,0-healthy-params=5,-0,-100--strain-2.out -ele 1 2 3 4 5 6 7 8 9 10 11 12 13 14 15 16 17 18 19 20 21 22 23 24 25 26 27 28 29 30 31 32 33 34 35 36 37 38 39 40 41 42 43 44 45 46 47 48 49 50 51 52 53 54 55 56 57 58 59 60 61 62 63 64 65 66 67 68 69 70 71 72 73 74 75 76 77 78 79 80 81 82 83 84 85 86 87 88 89 9
recorder Element -file generated-data/bridge-705-10,0-healthy/opensees-responses/bridge-705-10,0-healthy-params=5,-0,-100--strain-3.out -ele 1 2 3 4 5 6 7 8 9 10 11 12 13 14 15 16 17 18 19 20 21 22 23 24 25 26 27 28 29 30 31 32 33 34 35 36 37 38 39 40 41 42 43 44 45 46 47 48 49 50 51 52 53 54 55 56 57 58 59 60 61 62 63 64 65 66 67 68 69 70 71 72 73 74 75 76 77 78 79 80 81 82 83 84 85 86 87 88 89 9
recorder Element -file generated-data/bridge-705-10,0-healthy/opensees-responses/bridge-705-10,0-healthy-params=5,-0,-100--strain-4.out -ele 1 2 3 4 5 6 7 8 9 10 11 12 13 14 15 16 17 18 19 20 21 22 23 24 25 26 27 28 29 30 31 32 33 34 35 36 37 38 39 40 41 42 43 44 45 46 47 48 49 50 51 52 53 54 55 56 57 58 59 60 61 62 63 64 65 66 67 68 69 70 71 72 73 74 75 76 77 78 79 80 81 82 83 84 85 86 87 88 89 9

system BandGeneral
numberer RCM
constraints Plain
integrator LoadControl 1
algorithm Newton
test NormDispIncr 1.0e-12 1000
analysis Static

analyze 1

# Array of each element's ID.
set l [list 1 2 3 4 5 6 7 8 9 10 11 12 13 14 15 16 17 18 19 20 21 22 23 24 25 26 27 28 29 30 31 32 33 34 35 36 37 38 39 40 41 42 43 44 45 46 47 48 49 50 51 52 53 54 55 56 57 58 59 60 61 62 63 64 65 66 67 68 69 70 71 72 73 74 75 76 77 78 79 80 81 82 83 84 85 86 87 88 89 90 91 92 93 94 95 96 97 98 99 100 101 102 103 104 105 106 107 108 109 110 111 112 113 114 115 116 117 118 119 120 121 122 123 124 
# Write internal forces to file.
set outfile [open "generated-data/bridge-705-10,0-healthy/opensees-responses/bridge-705-10,0-healthy-params=5,-0,-100--stress.out" w]

foreach i $l {
	# https://opensees.berkeley.edu/community/viewtopic.php?f=2&t=64527&p=110182&hilit=shellMITC4#p110182
	# [Nxx, Nyy, Nxy, Mxx, Myy, Mxy, Vxz, Vyz]
	set internal_force [eleResponse $i stresses]
	puts $outfile $internal_force
	puts $outfile "\n"
}
close $outfile
