wipe

model basic -ndm 2 -ndf 3

geomTransf Linear 1

uniaxialMaterial Concrete02  1  -5.12e+01 -0.0009 -4.10e+01 -0.0035 0.5 0.0  47000
uniaxialMaterial ElasticMultiLinear  2  -strain 0.0 2.21514e-03 7.97184e-02 0.5  -stress  0.0  4.43027e+02 5.34423e+02 0.00000e+00

uniaxialMaterial ElasticMultiLinear  1001  -strain 0.0 2.11399e-03 2.15413e-02 0.5  -stress  0.0  4.23e+02 4.95e+02 0.00e+00

uniaxialMaterial ElasticMultiLinear  1002  -strain 0.0 2.11400e-03 2.15416e-02 0.5  -stress  0.0  4.23e+02 4.95e+02 0.00e+00

uniaxialMaterial ElasticMultiLinear  1003  -strain 0.0 2.11400e-03 2.15416e-02 0.5  -stress  0.0  4.23e+02 4.95e+02 0.00e+00

uniaxialMaterial ElasticMultiLinear  1004  -strain 0.0 2.11400e-03 2.15416e-02 0.5  -stress  0.0  4.23e+02 4.95e+02 0.00e+00

uniaxialMaterial ElasticMultiLinear  1005  -strain 0.0 2.11399e-03 2.15409e-02 0.5  -stress  0.0  4.23e+02 4.95e+02 0.00e+00

uniaxialMaterial ElasticMultiLinear  1006  -strain 0.0 2.11398e-03 2.15399e-02 0.5  -stress  0.0  4.23e+02 4.95e+02 0.00e+00

uniaxialMaterial ElasticMultiLinear  1007  -strain 0.0 2.11396e-03 2.15382e-02 0.5  -stress  0.0  4.23e+02 4.95e+02 0.00e+00

uniaxialMaterial ElasticMultiLinear  1008  -strain 0.0 2.11395e-03 2.15372e-02 0.5  -stress  0.0  4.23e+02 4.95e+02 0.00e+00

uniaxialMaterial ElasticMultiLinear  1009  -strain 0.0 2.11395e-03 2.15372e-02 0.5  -stress  0.0  4.23e+02 4.95e+02 0.00e+00

uniaxialMaterial ElasticMultiLinear  1010  -strain 0.0 2.11396e-03 2.15375e-02 0.5  -stress  0.0  4.23e+02 4.95e+02 0.00e+00

uniaxialMaterial ElasticMultiLinear  1011  -strain 0.0 2.11396e-03 2.15382e-02 0.5  -stress  0.0  4.23e+02 4.95e+02 0.00e+00

uniaxialMaterial ElasticMultiLinear  1012  -strain 0.0 2.11398e-03 2.15396e-02 0.5  -stress  0.0  4.23e+02 4.95e+02 0.00e+00

uniaxialMaterial ElasticMultiLinear  1013  -strain 0.0 2.11399e-03 2.15406e-02 0.5  -stress  0.0  4.23e+02 4.95e+02 0.00e+00

uniaxialMaterial ElasticMultiLinear  1014  -strain 0.0 2.11399e-03 2.15406e-02 0.5  -stress  0.0  4.23e+02 4.95e+02 0.00e+00

uniaxialMaterial ElasticMultiLinear  1015  -strain 0.0 2.11398e-03 2.15403e-02 0.5  -stress  0.0  4.23e+02 4.95e+02 0.00e+00

uniaxialMaterial ElasticMultiLinear  1016  -strain 0.0 2.11398e-03 2.15399e-02 0.5  -stress  0.0  4.23e+02 4.95e+02 0.00e+00

uniaxialMaterial ElasticMultiLinear  1017  -strain 0.0 2.11398e-03 2.15396e-02 0.5  -stress  0.0  4.23e+02 4.95e+02 0.00e+00

uniaxialMaterial ElasticMultiLinear  1018  -strain 0.0 2.11397e-03 2.15392e-02 0.5  -stress  0.0  4.23e+02 4.95e+02 0.00e+00

uniaxialMaterial ElasticMultiLinear  1019  -strain 0.0 2.11397e-03 2.15389e-02 0.5  -stress  0.0  4.23e+02 4.95e+02 0.00e+00

# ... 90 like lines cut
section Fiber 1 {
patch rect 1 10 1 [expr -625]  [expr -550]  625 550
layer straight  2  1  3928 [expr 582.5]  0  [expr 582.5] 0
layer straight  2  1  3928 [expr 545.5]  0  [expr 545.5] 0
layer straight  1001   1  1754.1686 [expr 0] 0 [expr 0] 0
layer straight  1001   1  1754.1686 [expr 0] 0 [expr 0] 0
layer straight  1001   1  1754.1686 [expr 0] 0 [expr 0] 0
}

section Fiber 2 {
patch rect 1 10 1 [expr -625]  [expr -550]  625 550
layer straight  2  1  3928 [expr 582.5]  0  [expr 582.5] 0
layer straight  2  1  3928 [expr 545.5]  0  [expr 545.5] 0
layer straight  1002   1  1754.1928 [expr 0] 0 [expr 0] 0
layer straight  1002   1  1754.1928 [expr 0] 0 [expr 0] 0
layer straight  1002   1  1754.1928 [expr 0] 0 [expr 0] 0
}

section Fiber 3 {
patch rect 1 10 1 [expr -625]  [expr -550]  625 550
layer straight  2  1  3928 [expr 582.5]  0  [expr 582.5] 0
layer straight  2  1  3928 [expr 545.5]  0  [expr 545.5] 0
layer straight  1003   1  1754.1928 [expr 0] 0 [expr 0] 0
layer straight  1003   1  1754.1928 [expr 0] 0 [expr 0] 0
layer straight  1003   1  1754.1928 [expr 0] 0 [expr 0] 0
}

section Fiber 4 {
patch rect 1 10 1 [expr -625]  [expr -550]  625 550
layer straight  2  1  3928 [expr 582.5]  0  [expr 582.5] 0
layer straight  2  1  3928 [expr 545.5]  0  [expr 545.5] 0
layer straight  1004   1  1754.1928 [expr 0] 0 [expr 0] 0
layer straight  1004   1  1754.1928 [expr 0] 0 [expr 0] 0
layer straight  1004   1  1754.1928 [expr 0] 0 [expr 0] 0
}

section Fiber 5 {
patch rect 1 10 1 [expr -625]  [expr -550]  625 550
layer straight  2  1  3928 [expr 582.5]  0  [expr 582.5] 0
layer straight  2  1  3928 [expr 545.5]  0  [expr 545.5] 0
layer straight  1005   1  1754.1444 [expr 0] 0 [expr 0] 0
layer straight  1005   1  1754.1444 [expr 0] 0 [expr 0] 0
layer straight  1005   1  1754.1444 [expr 0] 0 [expr 0] 0
}

section Fiber 6 {
patch rect 1 10 1 [expr -625]  [expr -550]  625 550
layer straight  2  1  3928 [expr 582.5]  0  [expr 582.5] 0
layer straight  2  1  3928 [expr 545.5]  0  [expr 545.5] 0
layer straight  1006   1  1754.0718 [expr 0] 0 [expr 0] 0
layer straight  1006   1  1754.0718 [expr 0] 0 [expr 0] 0
layer straight  1006   1  1754.0718 [expr 0] 0 [expr 0] 0
}

section Fiber 7 {
patch rect 1 10 1 [expr -625]  [expr -550]  625 550
layer straight  2  1  3928 [expr 582.5]  0  [expr 582.5] 0
layer straight  2  1  3928 [expr 545.5]  0  [expr 545.5] 0
layer straight  1007   1  1753.9507 [expr 0] 0 [expr 0] 0
layer straight  1007   1  1753.9507 [expr 0] 0 [expr 0] 0
layer straight  1007   1  1753.9507 [expr 0] 0 [expr 0] 0
}

section Fiber 8 {
patch rect 1 10 1 [expr -625]  [expr -550]  625 550
layer straight  2  1  3928 [expr 582.5]  0  [expr 582.5] 0
layer straight  2  1  3928 [expr 545.5]  0  [expr 545.5] 0
layer straight  1008   1  1753.878 [expr 0] 0 [expr 0] 0
layer straight  1008   1  1753.878 [expr 0] 0 [expr 0] 0
layer straight  1008   1  1753.878 [expr 0] 0 [expr 0] 0
}

section Fiber 9 {
patch rect 1 10 1 [expr -625]  [expr -550]  625 550
layer straight  2  1  3928 [expr 582.5]  0  [expr 582.5] 0
layer straight  2  1  3928 [expr 545.5]  0  [expr 545.5] 0
layer straight  1009   1  1753.878 [expr 0] 0 [expr 0] 0
layer straight  1009   1  1753.878 [expr 0] 0 [expr 0] 0
layer straight  1009   1  1753.878 [expr 0] 0 [expr 0] 0
}

section Fiber 10 {
patch rect 1 10 1 [expr -625]  [expr -550]  625 550
layer straight  2  1  3928 [expr 582.5]  0  [expr 582.5] 0
layer straight  2  1  3928 [expr 545.5]  0  [expr 545.5] 0
layer straight  1010   1  1753.9023 [expr 0] 0 [expr 0] 0
layer straight  1010   1  1753.9023 [expr 0] 0 [expr 0] 0
layer straight  1010   1  1753.9023 [expr 0] 0 [expr 0] 0
}

section Fiber 11 {
patch rect 1 10 1 [expr -625]  [expr -550]  625 550
layer straight  2  1  3928 [expr 582.5]  0  [expr 582.5] 0
layer straight  2  1  3928 [expr 545.5]  0  [expr 545.5] 0
layer straight  1011   1  1753.9507 [expr 0] 0 [expr 0] 0
layer straight  1011   1  1753.9507 [expr 0] 0 [expr 0] 0
layer straight  1011   1  1753.9507 [expr 0] 0 [expr 0] 0
}

section Fiber 12 {
patch rect 1 10 1 [expr -625]  [expr -550]  625 550
layer straight  2  1  3928 [expr 582.5]  0  [expr 582.5] 0
layer straight  2  1  3928 [expr 545.5]  0  [expr 545.5] 0
layer straight  1012   1  1754.0476 [expr 0] 0 [expr 0] 0
layer straight  1012   1  1754.0476 [expr 0] 0 [expr 0] 0
layer straight  1012   1  1754.0476 [expr 0] 0 [expr 0] 0
}

section Fiber 13 {
patch rect 1 10 1 [expr -625]  [expr -550]  625 550
layer straight  2  1  3928 [expr 582.5]  0  [expr 582.5] 0
layer straight  2  1  3928 [expr 545.5]  0  [expr 545.5] 0
layer straight  1013   1  1754.1202 [expr 0] 0 [expr 0] 0
layer straight  1013   1  1754.1202 [expr 0] 0 [expr 0] 0
layer straight  1013   1  1754.1202 [expr 0] 0 [expr 0] 0
}

section Fiber 14 {
patch rect 1 10 1 [expr -625]  [expr -550]  625 550
layer straight  2  1  3928 [expr 582.5]  0  [expr 582.5] 0
layer straight  2  1  3928 [expr 545.5]  0  [expr 545.5] 0
layer straight  1014   1  1754.1202 [expr 0] 0 [expr 0] 0
layer straight  1014   1  1754.1202 [expr 0] 0 [expr 0] 0
layer straight  1014   1  1754.1202 [expr 0] 0 [expr 0] 0
}

section Fiber 15 {
patch rect 1 10 1 [expr -625]  [expr -550]  625 550
layer straight  2  1  3928 [expr 582.5]  0  [expr 582.5] 0
layer straight  2  1  3928 [expr 545.5]  0  [expr 545.5] 0
layer straight  1015   1  1754.096 [expr 0] 0 [expr 0] 0
layer straight  1015   1  1754.096 [expr 0] 0 [expr 0] 0
layer straight  1015   1  1754.096 [expr 0] 0 [expr 0] 0
}

section Fiber 16 {
patch rect 1 10 1 [expr -625]  [expr -550]  625 550
layer straight  2  1  3928 [expr 582.5]  0  [expr 582.5] 0
layer straight  2  1  3928 [expr 545.5]  0  [expr 545.5] 0
layer straight  1016   1  1754.0718 [expr 0] 0 [expr 0] 0
layer straight  1016   1  1754.0718 [expr 0] 0 [expr 0] 0
layer straight  1016   1  1754.0718 [expr 0] 0 [expr 0] 0
}

section Fiber 17 {
patch rect 1 10 1 [expr -625]  [expr -550]  625 550
layer straight  2  1  3928 [expr 582.5]  0  [expr 582.5] 0
layer straight  2  1  3928 [expr 545.5]  0  [expr 545.5] 0
layer straight  1017   1  1754.0476 [expr 0] 0 [expr 0] 0
layer straight  1017   1  1754.0476 [expr 0] 0 [expr 0] 0
layer straight  1017   1  1754.0476 [expr 0] 0 [expr 0] 0
}

section Fiber 18 {
patch rect 1 10 1 [expr -625]  [expr -550]  625 550
layer straight  2  1  3928 [expr 582.5]  0  [expr 582.5] 0
layer straight  2  1  3928 [expr 545.5]  0  [expr 545.5] 0
layer straight  1018   1  1754.0234 [expr 0] 0 [expr 0] 0
layer straight  1018   1  1754.0234 [expr 0] 0 [expr 0] 0
layer straight  1018   1  1754.0234 [expr 0] 0 [expr 0] 0
}

section Fiber 19 {
patch rect 1 10 1 [expr -625]  [expr -550]  625 550
layer straight  2  1  3928 [expr 582.5]  0  [expr 582.5] 0
layer straight  2  1  3928 [expr 545.5]  0  [expr 545.5] 0
layer straight  1019   1  1753.9991 [expr 0] 0 [expr 0] 0
layer straight  1019   1  1753.9991 [expr 0] 0 [expr 0] 0
layer straight  1019   1  1753.9991 [expr 0] 0 [expr 0] 0
}

section Fiber 20 {
patch rect 1 10 1 [expr -625]  [expr -550]  625 550
layer straight  2  1  3928 [expr 582.5]  0  [expr 582.5] 0
layer straight  2  1  3928 [expr 545.5]  0  [expr 545.5] 0
layer straight  1020   1  1753.9749 [expr 0] 0 [expr 0] 0
layer straight  1020   1  1753.9749 [expr 0] 0 [expr 0] 0
layer straight  1020   1  1753.9749 [expr 0] 0 [expr 0] 0
}

section Fiber 21 {
patch rect 1 10 1 [expr -625]  [expr -550]  625 550
layer straight  2  1  3928 [expr 582.5]  0  [expr 582.5] 0
layer straight  2  1  3928 [expr 545.5]  0  [expr 545.5] 0
layer straight 1021 1  1754.0819 [expr -515] 0 [expr -515] 0
layer straight 1021 1  2104.8983 [expr -575] 0 [expr -575] 0
}

section Fiber 22 {
patch rect 1 10 1 [expr -625]  [expr -550]  625 550
layer straight  2  1  3928 [expr 582.5]  0  [expr 582.5] 0
layer straight  2  1  3928 [expr 545.5]  0  [expr 545.5] 0
layer straight 1022 1  1754.0819 [expr -515] 0 [expr -515] 0
layer straight 1022 1  2104.8983 [expr -575] 0 [expr -575] 0
}

section Fiber 23 {
patch rect 1 10 1 [expr -625]  [expr -550]  625 550
layer straight  2  1  3928 [expr 582.5]  0  [expr 582.5] 0
layer straight  2  1  3928 [expr 545.5]  0  [expr 545.5] 0
layer straight 1023 1  1754.0819 [expr -515] 0 [expr -515] 0
layer straight 1023 1  2104.8983 [expr -575] 0 [expr -575] 0
}

section Fiber 24 {
patch rect 1 10 1 [expr -625]  [expr -550]  625 550
layer straight  2  1  3928 [expr 582.5]  0  [expr 582.5] 0
layer straight  2  1  3928 [expr 545.5]  0  [expr 545.5] 0
layer straight 1024 1  1754.0819 [expr -515] 0 [expr -515] 0
layer straight 1024 1  2104.8983 [expr -575] 0 [expr -575] 0
}

section Fiber 25 {
patch rect 1 10 1 [expr -625]  [expr -550]  625 550
layer straight  2  1  3928 [expr 582.5]  0  [expr 582.5] 0
layer straight  2  1  3928 [expr 545.5]  0  [expr 545.5] 0
layer straight 1025 1  1754.0819 [expr -515] 0 [expr -515] 0
layer straight 1025 1  2104.8983 [expr -575] 0 [expr -575] 0
}

section Fiber 26 {
patch rect 1 10 1 [expr -625]  [expr -550]  625 550
layer straight  2  1  3928 [expr 582.5]  0  [expr 582.5] 0
layer straight  2  1  3928 [expr 545.5]  0  [expr 545.5] 0
layer straight 1026 1  1754.0819 [expr -515] 0 [expr -515] 0
layer straight 1026 1  2104.8983 [expr -575] 0 [expr -575] 0
}

section Fiber 27 {
patch rect 1 10 1 [expr -625]  [expr -550]  625 550
layer straight  2  1  3928 [expr 582.5]  0  [expr 582.5] 0
layer straight  2  1  3928 [expr 545.5]  0  [expr 545.5] 0
layer straight 1027 1  1754.1303 [expr -515] 0 [expr -515] 0
layer straight 1027 1  2104.9564 [expr -575] 0 [expr -575] 0
}

section Fiber 28 {
patch rect 1 10 1 [expr -625]  [expr -550]  625 550
layer straight  2  1  3928 [expr 582.5]  0  [expr 582.5] 0
layer straight  2  1  3928 [expr 545.5]  0  [expr 545.5] 0
layer straight 1028 1  1754.4444 [expr -515] 0 [expr -515] 0
layer straight 1028 1  2105.3333 [expr -575] 0 [expr -575] 0
}

section Fiber 29 {
patch rect 1 10 1 [expr -625]  [expr -550]  625 550
layer straight  2  1  3928 [expr 582.5]  0  [expr 582.5] 0
layer straight  2  1  3928 [expr 545.5]  0  [expr 545.5] 0
layer straight 1029 1  1754.6375 [expr -515] 0 [expr -515] 0
layer straight 1029 1  2105.5649 [expr -575] 0 [expr -575] 0
}

section Fiber 30 {
patch rect 1 10 1 [expr -625]  [expr -550]  625 550
layer straight  2  1  3928 [expr 582.5]  0  [expr 582.5] 0
layer straight  2  1  3928 [expr 545.5]  0  [expr 545.5] 0
layer straight 1030 1  1754.734 [expr -515] 0 [expr -515] 0
layer straight 1030 1  2105.6808 [expr -575] 0 [expr -575] 0
}

section Fiber 31 {
patch rect 1 10 1 [expr -625]  [expr -550]  625 550
layer straight  2  1  3928 [expr 582.5]  0  [expr 582.5] 0
layer straight  2  1  3928 [expr 545.5]  0  [expr 545.5] 0
layer straight 1031 1  1754.541 [expr -515] 0 [expr -515] 0
layer straight 1031 1  2105.4492 [expr -575] 0 [expr -575] 0
}

section Fiber 32 {
patch rect 1 10 1 [expr -625]  [expr -550]  625 550
layer straight  2  1  3928 [expr 582.5]  0  [expr 582.5] 0
layer straight  2  1  3928 [expr 545.5]  0  [expr 545.5] 0
layer straight 1032 1  1285.4783 [expr -515] 0 [expr -515] 0
layer straight 1032 1  1542.574 [expr -575] 0 [expr -575] 0
}

section Fiber 33 {
patch rect 1 10 1 [expr -625]  [expr -550]  625 550
layer straight  2  1  3928 [expr 582.5]  0  [expr 582.5] 0
layer straight  2  1  3928 [expr 545.5]  0  [expr 545.5] 0
layer straight 1033 1  1424.4765 [expr -515] 0 [expr -515] 0
layer straight 1033 1  1709.3718 [expr -575] 0 [expr -575] 0
}

section Fiber 34 {
patch rect 1 10 1 [expr -625]  [expr -550]  625 550
layer straight  2  1  3928 [expr 582.5]  0  [expr 582.5] 0
layer straight  2  1  3928 [expr 545.5]  0  [expr 545.5] 0
layer straight 1034 1  1754.5892 [expr -515] 0 [expr -515] 0
layer straight 1034 1  2105.5071 [expr -575] 0 [expr -575] 0
}

section Fiber 35 {
patch rect 1 10 1 [expr -625]  [expr -550]  625 550
layer straight  2  1  3928 [expr 582.5]  0  [expr 582.5] 0
layer straight  2  1  3928 [expr 545.5]  0  [expr 545.5] 0
layer straight 1035 1  1754.7821 [expr -515] 0 [expr -515] 0
layer straight 1035 1  2105.7385 [expr -575] 0 [expr -575] 0
}

section Fiber 36 {
patch rect 1 10 1 [expr -625]  [expr -550]  625 550
layer straight  2  1  3928 [expr 582.5]  0  [expr 582.5] 0
layer straight  2  1  3928 [expr 545.5]  0  [expr 545.5] 0
layer straight 1036 1  1754.7339 [expr -515] 0 [expr -515] 0
layer straight 1036 1  2105.6807 [expr -575] 0 [expr -575] 0
}

section Fiber 37 {
patch rect 1 10 1 [expr -625]  [expr -550]  625 550
layer straight  2  1  3928 [expr 582.5]  0  [expr 582.5] 0
layer straight  2  1  3928 [expr 545.5]  0  [expr 545.5] 0
layer straight 1037 1  1754.541 [expr -515] 0 [expr -515] 0
layer straight 1037 1  2105.4492 [expr -575] 0 [expr -575] 0
}

section Fiber 38 {
patch rect 1 10 1 [expr -625]  [expr -550]  625 550
layer straight  2  1  3928 [expr 582.5]  0  [expr 582.5] 0
layer straight  2  1  3928 [expr 545.5]  0  [expr 545.5] 0
layer straight 1038 1  1754.2512 [expr -515] 0 [expr -515] 0
layer straight 1038 1  2105.1014 [expr -575] 0 [expr -575] 0
}

section Fiber 39 {
patch rect 1 10 1 [expr -625]  [expr -550]  625 550
layer straight  2  1  3928 [expr 582.5]  0  [expr 582.5] 0
layer straight  2  1  3928 [expr 545.5]  0  [expr 545.5] 0
layer straight 1039 1  1754.0819 [expr -515] 0 [expr -515] 0
layer straight 1039 1  2104.8983 [expr -575] 0 [expr -575] 0
}

section Fiber 40 {
patch rect 1 10 1 [expr -625]  [expr -550]  625 550
layer straight  2  1  3928 [expr 582.5]  0  [expr 582.5] 0
layer straight  2  1  3928 [expr 545.5]  0  [expr 545.5] 0
layer straight 1040 1  1754.0819 [expr -515] 0 [expr -515] 0
layer straight 1040 1  2104.8983 [expr -575] 0 [expr -575] 0
}

section Fiber 41 {
patch rect 1 10 1 [expr -625]  [expr -550]  625 550
layer straight  2  1  3928 [expr 582.5]  0  [expr 582.5] 0
layer straight  2  1  3928 [expr 545.5]  0  [expr 545.5] 0
layer straight 1041 1  1754.0819 [expr -515] 0 [expr -515] 0
layer straight 1041 1  2104.8983 [expr -575] 0 [expr -575] 0
}

section Fiber 42 {
patch rect 1 10 1 [expr -625]  [expr -550]  625 550
layer straight  2  1  3928 [expr 582.5]  0  [expr 582.5] 0
layer straight  2  1  3928 [expr 545.5]  0  [expr 545.5] 0
layer straight 1042 1  1754.0819 [expr -515] 0 [expr -515] 0
layer straight 1042 1  2104.8983 [expr -575] 0 [expr -575] 0
}

section Fiber 43 {
patch rect 1 10 1 [expr -625]  [expr -550]  625 550
layer straight  2  1  3928 [expr 582.5]  0  [expr 582.5] 0
layer straight  2  1  3928 [expr 545.5]  0  [expr 545.5] 0
layer straight 1043 1  1754.0819 [expr -515] 0 [expr -515] 0
layer straight 1043 1  2104.8983 [expr -575] 0 [expr -575] 0
}

section Fiber 44 {
patch rect 1 10 1 [expr -625]  [expr -550]  625 550
layer straight  2  1  3928 [expr 582.5]  0  [expr 582.5] 0
layer straight  2  1  3928 [expr 545.5]  0  [expr 545.5] 0
layer straight 1044 1  1754.0819 [expr -515] 0 [expr -515] 0
layer straight 1044 1  2104.8983 [expr -575] 0 [expr -575] 0
}

section Fiber 45 {
patch rect 1 10 1 [expr -625]  [expr -550]  625 550
layer straight  2  1  3928 [expr 582.5]  0  [expr 582.5] 0
layer straight  2  1  3928 [expr 545.5]  0  [expr 545.5] 0
layer straight  1045   1  1754.1686 [expr -465] 0 [expr -465] 0
layer straight  1045   1  1754.1686 [expr -515] 0 [expr -515] 0
layer straight  1045   1  1754.1686 [expr -575] 0 [expr -575] 0
}

section Fiber 46 {
patch rect 1 10 1 [expr -625]  [expr -550]  625 550
layer straight  2  1  3928 [expr 582.5]  0  [expr 582.5] 0
layer straight  2  1  3928 [expr 545.5]  0  [expr 545.5] 0
layer straight  1046   1  1754.1686 [expr -465] 0 [expr -465] 0
layer straight  1046   1  1754.1686 [expr -515] 0 [expr -515] 0
layer straight  1046   1  1754.1686 [expr -575] 0 [expr -575] 0
}

section Fiber 47 {
patch rect 1 10 1 [expr -625]  [expr -550]  625 550
layer straight  2  1  3928 [expr 582.5]  0  [expr 582.5] 0
layer straight  2  1  3928 [expr 545.5]  0  [expr 545.5] 0
layer straight  1047   1  1754.1686 [expr -465] 0 [expr -465] 0
layer straight  1047   1  1754.1686 [expr -515] 0 [expr -515] 0
layer straight  1047   1  1754.1686 [expr -575] 0 [expr -575] 0
}

section Fiber 48 {
patch rect 1 10 1 [expr -625]  [expr -550]  625 550
layer straight  2  1  3928 [expr 582.5]  0  [expr 582.5] 0
layer straight  2  1  3928 [expr 545.5]  0  [expr 545.5] 0
layer straight  1048   1  1754.1686 [expr -465] 0 [expr -465] 0
layer straight  1048   1  1754.1686 [expr -515] 0 [expr -515] 0
layer straight  1048   1  1754.1686 [expr -575] 0 [expr -575] 0
}

section Fiber 49 {
patch rect 1 10 1 [expr -625]  [expr -550]  625 550
layer straight  2  1  3928 [expr 582.5]  0  [expr 582.5] 0
layer straight  2  1  3928 [expr 545.5]  0  [expr 545.5] 0
layer straight  1049   1  1754.1686 [expr -465] 0 [expr -465] 0
layer straight  1049   1  1754.1686 [expr -515] 0 [expr -515] 0
layer straight  1049   1  1754.1686 [expr -575] 0 [expr -575] 0
}

section Fiber 50 {
patch rect 1 10 1 [expr -625]  [expr -550]  625 550
layer straight  2  1  3928 [expr 582.5]  0  [expr 582.5] 0
layer straight  2  1  3928 [expr 545.5]  0  [expr 545.5] 0
layer straight  1050   1  1754.1686 [expr -465] 0 [expr -465] 0
layer straight  1050   1  1754.1686 [expr -515] 0 [expr -515] 0
layer straight  1050   1  1754.1686 [expr -575] 0 [expr -575] 0
}

section Fiber 51 {
patch rect 1 10 1 [expr -625]  [expr -550]  625 550
layer straight  2  1  3928 [expr 582.5]  0  [expr 582.5] 0
layer straight  2  1  3928 [expr 545.5]  0  [expr 545.5] 0
layer straight  1051   1  1754.1444 [expr -465] 0 [expr -465] 0
layer straight  1051   1  1754.1444 [expr -515] 0 [expr -515] 0
layer straight  1051   1  1754.1444 [expr -575] 0 [expr -575] 0
}

section Fiber 52 {
patch rect 1 10 1 [expr -625]  [expr -550]  625 550
layer straight  2  1  3928 [expr 582.5]  0  [expr 582.5] 0
layer straight  2  1  3928 [expr 545.5]  0  [expr 545.5] 0
layer straight  1052   1  1754.0718 [expr -465] 0 [expr -465] 0
layer straight  1052   1  1754.0718 [expr -515] 0 [expr -515] 0
layer straight  1052   1  1754.0718 [expr -575] 0 [expr -575] 0
}

section Fiber 53 {
patch rect 1 10 1 [expr -625]  [expr -550]  625 550
layer straight  2  1  3928 [expr 582.5]  0  [expr 582.5] 0
layer straight  2  1  3928 [expr 545.5]  0  [expr 545.5] 0
layer straight  1053   1  1754.0476 [expr -465] 0 [expr -465] 0
layer straight  1053   1  1754.0476 [expr -515] 0 [expr -515] 0
layer straight  1053   1  1754.0476 [expr -575] 0 [expr -575] 0
}

section Fiber 54 {
patch rect 1 10 1 [expr -625]  [expr -550]  625 550
layer straight  2  1  3928 [expr 582.5]  0  [expr 582.5] 0
layer straight  2  1  3928 [expr 545.5]  0  [expr 545.5] 0
layer straight  1054   1  1754.0234 [expr -465] 0 [expr -465] 0
layer straight  1054   1  1754.0234 [expr -515] 0 [expr -515] 0
layer straight  1054   1  1754.0234 [expr -575] 0 [expr -575] 0
}

section Fiber 55 {
patch rect 1 10 1 [expr -625]  [expr -550]  625 550
layer straight  2  1  3928 [expr 582.5]  0  [expr 582.5] 0
layer straight  2  1  3928 [expr 545.5]  0  [expr 545.5] 0
layer straight  1055   1  1753.9991 [expr -465] 0 [expr -465] 0
layer straight  1055   1  1753.9991 [expr -515] 0 [expr -515] 0
layer straight  1055   1  1753.9991 [expr -575] 0 [expr -575] 0
}

section Fiber 56 {
patch rect 1 10 1 [expr -625]  [expr -550]  625 550
layer straight  2  1  3928 [expr 582.5]  0  [expr 582.5] 0
layer straight  2  1  3928 [expr 545.5]  0  [expr 545.5] 0
layer straight  1056   1  1753.9991 [expr -465] 0 [expr -465] 0
layer straight  1056   1  1753.9991 [expr -515] 0 [expr -515] 0
layer straight  1056   1  1753.9991 [expr -575] 0 [expr -575] 0
}

section Fiber 57 {
patch rect 1 10 1 [expr -625]  [expr -550]  625 550
layer straight  2  1  3928 [expr 582.5]  0  [expr 582.5] 0
layer straight  2  1  3928 [expr 545.5]  0  [expr 545.5] 0
layer straight  1057   1  1754.0234 [expr -465] 0 [expr -465] 0
layer straight  1057   1  1754.0234 [expr -515] 0 [expr -515] 0
layer straight  1057   1  1754.0234 [expr -575] 0 [expr -575] 0
}

section Fiber 58 {
patch rect 1 10 1 [expr -625]  [expr -550]  625 550
layer straight  2  1  3928 [expr 582.5]  0  [expr 582.5] 0
layer straight  2  1  3928 [expr 545.5]  0  [expr 545.5] 0
layer straight  1058   1  1754.0718 [expr -465] 0 [expr -465] 0
layer straight  1058   1  1754.0718 [expr -515] 0 [expr -515] 0
layer straight  1058   1  1754.0718 [expr -575] 0 [expr -575] 0
}

section Fiber 59 {
patch rect 1 10 1 [expr -625]  [expr -550]  625 550
layer straight  2  1  3928 [expr 582.5]  0  [expr 582.5] 0
layer straight  2  1  3928 [expr 545.5]  0  [expr 545.5] 0
layer straight  1059   1  1754.1202 [expr -465] 0 [expr -465] 0
layer straight  1059   1  1754.1202 [expr -515] 0 [expr -515] 0
layer straight  1059   1  1754.1202 [expr -575] 0 [expr -575] 0
}

section Fiber 60 {
patch rect 1 10 1 [expr -625]  [expr -550]  625 550
layer straight  2  1  3928 [expr 582.5]  0  [expr 582.5] 0
layer straight  2  1  3928 [expr 545.5]  0  [expr 545.5] 0
layer straight  1060   1  1754.1444 [expr -465] 0 [expr -465] 0
layer straight  1060   1  1754.1444 [expr -515] 0 [expr -515] 0
layer straight  1060   1  1754.1444 [expr -575] 0 [expr -575] 0
}

section Fiber 61 {
patch rect 1 10 1 [expr -625]  [expr -550]  625 550
layer straight  2  1  3928 [expr 582.5]  0  [expr 582.5] 0
layer straight  2  1  3928 [expr 545.5]  0  [expr 545.5] 0
layer straight  1061   1  1754.1686 [expr -465] 0 [expr -465] 0
layer straight  1061   1  1754.1686 [expr -515] 0 [expr -515] 0
layer straight  1061   1  1754.1686 [expr -575] 0 [expr -575] 0
}

section Fiber 62 {
patch rect 1 10 1 [expr -625]  [expr -550]  625 550
layer straight  2  1  3928 [expr 582.5]  0  [expr 582.5] 0
layer straight  2  1  3928 [expr 545.5]  0  [expr 545.5] 0
layer straight  1062   1  1775.7209 [expr -465] 0 [expr -465] 0
layer straight  1062   1  1775.7209 [expr -515] 0 [expr -515] 0
layer straight  1062   1  1775.7209 [expr -575] 0 [expr -575] 0
}

section Fiber 63 {
patch rect 1 10 1 [expr -625]  [expr -550]  625 550
layer straight  2  1  3928 [expr 582.5]  0  [expr 582.5] 0
layer straight  2  1  3928 [expr 545.5]  0  [expr 545.5] 0
layer straight  1063   1  1754.1686 [expr -465] 0 [expr -465] 0
layer straight  1063   1  1754.1686 [expr -515] 0 [expr -515] 0
layer straight  1063   1  1754.1686 [expr -575] 0 [expr -575] 0
}

section Fiber 64 {
patch rect 1 10 1 [expr -625]  [expr -550]  625 550
layer straight  2  1  3928 [expr 582.5]  0  [expr 582.5] 0
layer straight  2  1  3928 [expr 545.5]  0  [expr 545.5] 0
layer straight  1064   1  1754.1686 [expr -465] 0 [expr -465] 0
layer straight  1064   1  1754.1686 [expr -515] 0 [expr -515] 0
layer straight  1064   1  1754.1686 [expr -575] 0 [expr -575] 0
}

node 1 0  0.0
node 2 930  0.0
node 3 1860  0.0
node 4 2790  0.0
node 5 3720  0.0
node 6 4650  0.0
node 7 5580  0.0
node 8 6510  0.0
node 9 7440  0.0
node 10 8370  0.0
node 11 9300  0.0
node 12 10230  0.0
node 13 11160  0.0
node 14 12090  0.0
node 15 13020  0.0
node 16 13950  0.0
node 17 14880  0.0
node 18 15810  0.0
node 19 16740  0.0
node 20 17670  0.0
# ... 45 like lines cut
fix 1  1 1 0
fix  21  0  1  0
fix  45  0  1  0
fix  65  0  1  0

element  dispBeamColumn 1 1  2  5  1  1
element  dispBeamColumn 2 2  3  5  2  1
element  dispBeamColumn 3 3  4  5  3  1
element  dispBeamColumn 4 4  5  5  4  1
element  dispBeamColumn 5 5  6  5  5  1
element  dispBeamColumn 6 6  7  5  6  1
element  dispBeamColumn 7 7  8  5  7  1
element  dispBeamColumn 8 8  9  5  8  1
element  dispBeamColumn 9 9  10  5  9  1
element  dispBeamColumn 10 10  11  5  10  1
element  dispBeamColumn 11 11  12  5  11  1
element  dispBeamColumn 12 12  13  5  12  1
element  dispBeamColumn 13 13  14  5  13  1
element  dispBeamColumn 14 14  15  5  14  1
element  dispBeamColumn 15 15  16  5  15  1
element  dispBeamColumn 16 16  17  5  16  1
element  dispBeamColumn 17 17  18  5  17  1
element  dispBeamColumn 18 18  19  5  18  1
element  dispBeamColumn 19 19  20  5  19  1
element  dispBeamColumn 20 20  21  5  20  1
# ... 44 like lines cut


pattern Plain 2 "Linear" {
load  1 0.0 -1395 0.0
load  2 0.0 -1395 0.0
load  3 0.0 -1395 0.0
load  4 0.0 -1395 0.0
load  5 0.0 -1395 0.0
load  6 0.0 -1395 0.0
load  7 0.0 -1395 0.0
load  8 0.0 -1395 0.0
load  9 0.0 -1395 0.0
load  10 0.0 -1395 0.0
load  11 0.0 -1395 0.0
load  12 0.0 -1395 0.0
load  13 0.0 -1395 0.0
load  14 0.0 -1395 0.0
load  15 0.0 -1395 0.0
load  16 0.0 -1395 0.0
load  17 0.0 -1395 0.0
load  18 0.0 -1395 0.0
load  19 0.0 -1395 0.0
load  20 0.0 -1395 0.0
# ... 45 like lines cut
}

system ProfileSPD
numberer RCM
constraints Plain
test NormDispIncr 1.0e-3  50 3
integrator LoadControl 1
algorithm Newton
analysis Static

analyze 20

loadConst -time 0.0

pattern Plain 1  "Linear" {
load  31 0.0 -1.0 0.0
load  33 0.0 -1.0 0.0
load  35 0.0 -1.0 0.0
}
recorder Node -file section.out -time -node 33 -dof 2 disp
system ProfileSPD
numberer RCM
constraints Plain
test NormUnbalance 1.0e-2 30  5
integrator DisplacementControl  33  2  -1
algorithm Newton
analysis Static

set a 0
set b 0
set c 0
set d 0
set e 0
set f 0
set h 0
while { $a <= 1.703416e-02 && $b <= 1.805157e-02 && $c <= 7.971841e-02 && $d <= 7.971841e-02 && $e <= 7.971841e-02 && $f <= 7.971841e-02 && $h<1000} {
analyze 1
set a [eleResponse 32 section 5 fiber -575 0 1032 strain]
set b [eleResponse 33 section 1 fiber -575 0 1033 strain]
set c [eleResponse 20 section 5 fiber 582.5 0 2 strain]
set d [eleResponse 21 section 1 fiber 582.5 0 2 strain]
set e [eleResponse 44 section 5 fiber 582.5 0 2 strain]
set f [eleResponse 45 section 1 fiber 582.5 0 2 strain]
set k [expr {$h+1}]
set h $k
}
