wipe

model basic -ndm 2 -ndf 3

geomTransf Linear 1

uniaxialMaterial Concrete02  1  -5.09e+01 -0.002 -4.07e+01 -0.0035 0.5 0.0  47000
uniaxialMaterial ElasticMultiLinear  2  -strain 0.0 2.19477e-03 7.85439e-02 0.5  -stress  0.0  4.38953e+02 4.98214e+02 4.98214e+02

uniaxialMaterial ElasticMultiLinear  3  -strain 0.0 2.00857e-03 1.59781e-02 0.5  -stress  0.0  4.01715e+02 4.29532e+02 4.29532e+02

section Fiber 1 {
patch rect 1 10 1 [expr -625]  [expr -550]  625 550
layer straight  2  1  3922.9423 [expr 582.5]  0  [expr 582.5] 0
layer straight  2  1  3922.9423 [expr 545.5]  0  [expr 545.5] 0
layer straight  3   1  1152.7783 [expr -465] 0 [expr -465] 0
layer straight  3   1  1152.7783 [expr -515] 0 [expr -515] 0
layer straight  3   1  1152.7783 [expr -575] 0 [expr -575] 0
}

section Fiber 2 {
patch rect 1 10 1 [expr -625]  [expr -550]  625 550
layer straight  2  1  3922.9423 [expr 582.5]  0  [expr 582.5] 0
layer straight  2  1  3922.9423 [expr 545.5]  0  [expr 545.5] 0
layer straight  3   1  1152.7783 [expr -465] 0 [expr -465] 0
layer straight  3   1  1152.7783 [expr -515] 0 [expr -515] 0
layer straight  3   1  1152.7783 [expr -575] 0 [expr -575] 0
}

section Fiber 3 {
patch rect 1 10 1 [expr -625]  [expr -550]  625 550
layer straight  2  1  3922.9423 [expr 582.5]  0  [expr 582.5] 0
layer straight  2  1  3922.9423 [expr 545.5]  0  [expr 545.5] 0
layer straight  3   1  1152.7783 [expr -465] 0 [expr -465] 0
layer straight  3   1  1152.7783 [expr -515] 0 [expr -515] 0
layer straight  3   1  1152.7783 [expr -575] 0 [expr -575] 0
}

section Fiber 4 {
patch rect 1 10 1 [expr -625]  [expr -550]  625 550
layer straight  2  1  3922.9423 [expr 582.5]  0  [expr 582.5] 0
layer straight  2  1  3922.9423 [expr 545.5]  0  [expr 545.5] 0
layer straight  3   1  1152.7783 [expr -465] 0 [expr -465] 0
layer straight  3   1  1152.7783 [expr -515] 0 [expr -515] 0
layer straight  3   1  1152.7783 [expr -575] 0 [expr -575] 0
}

section Fiber 5 {
patch rect 1 10 1 [expr -625]  [expr -550]  625 550
layer straight  2  1  3922.9423 [expr 582.5]  0  [expr 582.5] 0
layer straight  2  1  3922.9423 [expr 545.5]  0  [expr 545.5] 0
layer straight  3   1  1152.7783 [expr -465] 0 [expr -465] 0
layer straight  3   1  1152.7783 [expr -515] 0 [expr -515] 0
layer straight  3   1  1152.7783 [expr -575] 0 [expr -575] 0
}

section Fiber 6 {
patch rect 1 10 1 [expr -625]  [expr -550]  625 550
layer straight  2  1  3922.9423 [expr 582.5]  0  [expr 582.5] 0
layer straight  2  1  3922.9423 [expr 545.5]  0  [expr 545.5] 0
layer straight  3   1  1152.7783 [expr -465] 0 [expr -465] 0
layer straight  3   1  1152.7783 [expr -515] 0 [expr -515] 0
layer straight  3   1  1152.7783 [expr -575] 0 [expr -575] 0
}

section Fiber 7 {
patch rect 1 10 1 [expr -625]  [expr -550]  625 550
layer straight  2  1  3922.9423 [expr 582.5]  0  [expr 582.5] 0
layer straight  2  1  3922.9423 [expr 545.5]  0  [expr 545.5] 0
layer straight  3   1  1152.7783 [expr -465] 0 [expr -465] 0
layer straight  3   1  1152.7783 [expr -515] 0 [expr -515] 0
layer straight  3   1  1152.7783 [expr -575] 0 [expr -575] 0
}

section Fiber 8 {
patch rect 1 10 1 [expr -625]  [expr -550]  625 550
layer straight  2  1  3922.9423 [expr 582.5]  0  [expr 582.5] 0
layer straight  2  1  3922.9423 [expr 545.5]  0  [expr 545.5] 0
layer straight  3   1  1152.7783 [expr -465] 0 [expr -465] 0
layer straight  3   1  1152.7783 [expr -515] 0 [expr -515] 0
layer straight  3   1  1152.7783 [expr -575] 0 [expr -575] 0
}

section Fiber 9 {
patch rect 1 10 1 [expr -625]  [expr -550]  625 550
layer straight  2  1  3922.9423 [expr 582.5]  0  [expr 582.5] 0
layer straight  2  1  3922.9423 [expr 545.5]  0  [expr 545.5] 0
layer straight  3   1  1152.7783 [expr -465] 0 [expr -465] 0
layer straight  3   1  1152.7783 [expr -515] 0 [expr -515] 0
layer straight  3   1  1152.7783 [expr -575] 0 [expr -575] 0
}

section Fiber 10 {
patch rect 1 10 1 [expr -625]  [expr -550]  625 550
layer straight  2  1  3922.9423 [expr 582.5]  0  [expr 582.5] 0
layer straight  2  1  3922.9423 [expr 545.5]  0  [expr 545.5] 0
layer straight  3   1  1152.7783 [expr -465] 0 [expr -465] 0
layer straight  3   1  1152.7783 [expr -515] 0 [expr -515] 0
layer straight  3   1  1152.7783 [expr -575] 0 [expr -575] 0
}

section Fiber 11 {
patch rect 1 10 1 [expr -625]  [expr -550]  625 550
layer straight  2  1  3922.9423 [expr 582.5]  0  [expr 582.5] 0
layer straight  2  1  3922.9423 [expr 545.5]  0  [expr 545.5] 0
layer straight  3   1  1152.7783 [expr -465] 0 [expr -465] 0
layer straight  3   1  1152.7783 [expr -515] 0 [expr -515] 0
layer straight  3   1  1152.7783 [expr -575] 0 [expr -575] 0
}

section Fiber 12 {
patch rect 1 10 1 [expr -625]  [expr -550]  625 550
layer straight  2  1  3922.9423 [expr 582.5]  0  [expr 582.5] 0
layer straight  2  1  3922.9423 [expr 545.5]  0  [expr 545.5] 0
layer straight  3   1  1152.7783 [expr -465] 0 [expr -465] 0
layer straight  3   1  1152.7783 [expr -515] 0 [expr -515] 0
layer straight  3   1  1152.7783 [expr -575] 0 [expr -575] 0
}

section Fiber 13 {
patch rect 1 10 1 [expr -625]  [expr -550]  625 550
layer straight  2  1  3922.9423 [expr 582.5]  0  [expr 582.5] 0
layer straight  2  1  3922.9423 [expr 545.5]  0  [expr 545.5] 0
layer straight  3   1  1152.7783 [expr -465] 0 [expr -465] 0
layer straight  3   1  1152.7783 [expr -515] 0 [expr -515] 0
layer straight  3   1  1152.7783 [expr -575] 0 [expr -575] 0
}

section Fiber 14 {
patch rect 1 10 1 [expr -625]  [expr -550]  625 550
layer straight  2  1  3922.9423 [expr 582.5]  0  [expr 582.5] 0
layer straight  2  1  3922.9423 [expr 545.5]  0  [expr 545.5] 0
layer straight  3   1  1152.7783 [expr -465] 0 [expr -465] 0
layer straight  3   1  1152.7783 [expr -515] 0 [expr -515] 0
layer straight  3   1  1152.7783 [expr -575] 0 [expr -575] 0
}

section Fiber 15 {
patch rect 1 10 1 [expr -625]  [expr -550]  625 550
layer straight  2  1  3922.9423 [expr 582.5]  0  [expr 582.5] 0
layer straight  2  1  3922.9423 [expr 545.5]  0  [expr 545.5] 0
layer straight  3   1  1152.7783 [expr -465] 0 [expr -465] 0
layer straight  3   1  1152.7783 [expr -515] 0 [expr -515] 0
layer straight  3   1  1152.7783 [expr -575] 0 [expr -575] 0
}

section Fiber 16 {
patch rect 1 10 1 [expr -625]  [expr -550]  625 550
layer straight  2  1  3922.9423 [expr 582.5]  0  [expr 582.5] 0
layer straight  2  1  3922.9423 [expr 545.5]  0  [expr 545.5] 0
layer straight  3   1  1152.7783 [expr -465] 0 [expr -465] 0
layer straight  3   1  1152.7783 [expr -515] 0 [expr -515] 0
layer straight  3   1  1152.7783 [expr -575] 0 [expr -575] 0
}

section Fiber 17 {
patch rect 1 10 1 [expr -625]  [expr -550]  625 550
layer straight  2  1  3922.9423 [expr 582.5]  0  [expr 582.5] 0
layer straight  2  1  3922.9423 [expr 545.5]  0  [expr 545.5] 0
layer straight  3   1  1152.7783 [expr -465] 0 [expr -465] 0
layer straight  3   1  1152.7783 [expr -515] 0 [expr -515] 0
layer straight  3   1  1152.7783 [expr -575] 0 [expr -575] 0
}

section Fiber 18 {
patch rect 1 10 1 [expr -625]  [expr -550]  625 550
layer straight  2  1  3922.9423 [expr 582.5]  0  [expr 582.5] 0
layer straight  2  1  3922.9423 [expr 545.5]  0  [expr 545.5] 0
layer straight  3   1  1152.7783 [expr -465] 0 [expr -465] 0
layer straight  3   1  1152.7783 [expr -515] 0 [expr -515] 0
layer straight  3   1  1152.7783 [expr -575] 0 [expr -575] 0
}

section Fiber 19 {
patch rect 1 10 1 [expr -625]  [expr -550]  625 550
layer straight  2  1  3922.9423 [expr 582.5]  0  [expr 582.5] 0
layer straight  2  1  3922.9423 [expr 545.5]  0  [expr 545.5] 0
layer straight  3   1  1152.7783 [expr -465] 0 [expr -465] 0
layer straight  3   1  1152.7783 [expr -515] 0 [expr -515] 0
layer straight  3   1  1152.7783 [expr -575] 0 [expr -575] 0
}

section Fiber 20 {
patch rect 1 10 1 [expr -625]  [expr -550]  625 550
layer straight  2  1  3922.9423 [expr 582.5]  0  [expr 582.5] 0
layer straight  2  1  3922.9423 [expr 545.5]  0  [expr 545.5] 0
layer straight  3   1  1152.7783 [expr -465] 0 [expr -465] 0
layer straight  3   1  1152.7783 [expr -515] 0 [expr -515] 0
layer straight  3   1  1152.7783 [expr -575] 0 [expr -575] 0
}

section Fiber 21 {
patch rect 1 10 1 [expr -625]  [expr -550]  625 550
layer straight  2  1  3922.9423 [expr 582.5]  0  [expr 582.5] 0
layer straight  2  1  3922.9423 [expr 545.5]  0  [expr 545.5] 0
layer straight 3 1  1151.3866 [expr -515] 0 [expr -515] 0
layer straight 3 1  1381.6639 [expr -575] 0 [expr -575] 0
}

section Fiber 22 {
patch rect 1 10 1 [expr -625]  [expr -550]  625 550
layer straight  2  1  3922.9423 [expr 582.5]  0  [expr 582.5] 0
layer straight  2  1  3922.9423 [expr 545.5]  0  [expr 545.5] 0
layer straight 3 1  1151.3866 [expr -515] 0 [expr -515] 0
layer straight 3 1  1381.6639 [expr -575] 0 [expr -575] 0
}

section Fiber 23 {
patch rect 1 10 1 [expr -625]  [expr -550]  625 550
layer straight  2  1  3922.9423 [expr 582.5]  0  [expr 582.5] 0
layer straight  2  1  3922.9423 [expr 545.5]  0  [expr 545.5] 0
layer straight 3 1  1151.3866 [expr -515] 0 [expr -515] 0
layer straight 3 1  1381.6639 [expr -575] 0 [expr -575] 0
}

section Fiber 24 {
patch rect 1 10 1 [expr -625]  [expr -550]  625 550
layer straight  2  1  3922.9423 [expr 582.5]  0  [expr 582.5] 0
layer straight  2  1  3922.9423 [expr 545.5]  0  [expr 545.5] 0
layer straight 3 1  1151.3866 [expr -515] 0 [expr -515] 0
layer straight 3 1  1381.6639 [expr -575] 0 [expr -575] 0
}

section Fiber 25 {
patch rect 1 10 1 [expr -625]  [expr -550]  625 550
layer straight  2  1  3922.9423 [expr 582.5]  0  [expr 582.5] 0
layer straight  2  1  3922.9423 [expr 545.5]  0  [expr 545.5] 0
layer straight 3 1  1151.3866 [expr -515] 0 [expr -515] 0
layer straight 3 1  1381.6639 [expr -575] 0 [expr -575] 0
}

section Fiber 26 {
patch rect 1 10 1 [expr -625]  [expr -550]  625 550
layer straight  2  1  3922.9423 [expr 582.5]  0  [expr 582.5] 0
layer straight  2  1  3922.9423 [expr 545.5]  0  [expr 545.5] 0
layer straight 3 1  1151.3866 [expr -515] 0 [expr -515] 0
layer straight 3 1  1381.6639 [expr -575] 0 [expr -575] 0
}

section Fiber 27 {
patch rect 1 10 1 [expr -625]  [expr -550]  625 550
layer straight  2  1  3922.9423 [expr 582.5]  0  [expr 582.5] 0
layer straight  2  1  3922.9423 [expr 545.5]  0  [expr 545.5] 0
layer straight 3 1  1151.3866 [expr -515] 0 [expr -515] 0
layer straight 3 1  1381.6639 [expr -575] 0 [expr -575] 0
}

section Fiber 28 {
patch rect 1 10 1 [expr -625]  [expr -550]  625 550
layer straight  2  1  3922.9423 [expr 582.5]  0  [expr 582.5] 0
layer straight  2  1  3922.9423 [expr 545.5]  0  [expr 545.5] 0
layer straight 3 1  1151.3866 [expr -515] 0 [expr -515] 0
layer straight 3 1  1381.6639 [expr -575] 0 [expr -575] 0
}

section Fiber 29 {
patch rect 1 10 1 [expr -625]  [expr -550]  625 550
layer straight  2  1  3922.9423 [expr 582.5]  0  [expr 582.5] 0
layer straight  2  1  3922.9423 [expr 545.5]  0  [expr 545.5] 0
layer straight 3 1  1151.3866 [expr -515] 0 [expr -515] 0
layer straight 3 1  1381.6639 [expr -575] 0 [expr -575] 0
}

section Fiber 30 {
patch rect 1 10 1 [expr -625]  [expr -550]  625 550
layer straight  2  1  3922.9423 [expr 582.5]  0  [expr 582.5] 0
layer straight  2  1  3922.9423 [expr 545.5]  0  [expr 545.5] 0
layer straight 3 1  1151.3866 [expr -515] 0 [expr -515] 0
layer straight 3 1  1381.6639 [expr -575] 0 [expr -575] 0
}

section Fiber 31 {
patch rect 1 10 1 [expr -625]  [expr -550]  625 550
layer straight  2  1  3922.9423 [expr 582.5]  0  [expr 582.5] 0
layer straight  2  1  3922.9423 [expr 545.5]  0  [expr 545.5] 0
layer straight 3 1  1151.3866 [expr -515] 0 [expr -515] 0
layer straight 3 1  1381.6639 [expr -575] 0 [expr -575] 0
}

section Fiber 32 {
patch rect 1 10 1 [expr -625]  [expr -550]  625 550
layer straight  2  1  3922.9423 [expr 582.5]  0  [expr 582.5] 0
layer straight  2  1  3922.9423 [expr 545.5]  0  [expr 545.5] 0
layer straight 3 1  1151.3866 [expr -515] 0 [expr -515] 0
layer straight 3 1  1381.6639 [expr -575] 0 [expr -575] 0
}

section Fiber 33 {
patch rect 1 10 1 [expr -625]  [expr -550]  625 550
layer straight  2  1  3922.9423 [expr 582.5]  0  [expr 582.5] 0
layer straight  2  1  3922.9423 [expr 545.5]  0  [expr 545.5] 0
layer straight 3 1  1151.3866 [expr -515] 0 [expr -515] 0
layer straight 3 1  1381.6639 [expr -575] 0 [expr -575] 0
}

section Fiber 34 {
patch rect 1 10 1 [expr -625]  [expr -550]  625 550
layer straight  2  1  3922.9423 [expr 582.5]  0  [expr 582.5] 0
layer straight  2  1  3922.9423 [expr 545.5]  0  [expr 545.5] 0
layer straight 3 1  1151.3866 [expr -515] 0 [expr -515] 0
layer straight 3 1  1381.6639 [expr -575] 0 [expr -575] 0
}

section Fiber 35 {
patch rect 1 10 1 [expr -625]  [expr -550]  625 550
layer straight  2  1  3922.9423 [expr 582.5]  0  [expr 582.5] 0
layer straight  2  1  3922.9423 [expr 545.5]  0  [expr 545.5] 0
layer straight 3 1  1151.3866 [expr -515] 0 [expr -515] 0
layer straight 3 1  1381.6639 [expr -575] 0 [expr -575] 0
}

section Fiber 36 {
patch rect 1 10 1 [expr -625]  [expr -550]  625 550
layer straight  2  1  3922.9423 [expr 582.5]  0  [expr 582.5] 0
layer straight  2  1  3922.9423 [expr 545.5]  0  [expr 545.5] 0
layer straight 3 1  1151.3866 [expr -515] 0 [expr -515] 0
layer straight 3 1  1381.6639 [expr -575] 0 [expr -575] 0
}

section Fiber 37 {
patch rect 1 10 1 [expr -625]  [expr -550]  625 550
layer straight  2  1  3922.9423 [expr 582.5]  0  [expr 582.5] 0
layer straight  2  1  3922.9423 [expr 545.5]  0  [expr 545.5] 0
layer straight 3 1  1151.3866 [expr -515] 0 [expr -515] 0
layer straight 3 1  1381.6639 [expr -575] 0 [expr -575] 0
}

section Fiber 38 {
patch rect 1 10 1 [expr -625]  [expr -550]  625 550
layer straight  2  1  3922.9423 [expr 582.5]  0  [expr 582.5] 0
layer straight  2  1  3922.9423 [expr 545.5]  0  [expr 545.5] 0
layer straight 3 1  1151.3866 [expr -515] 0 [expr -515] 0
layer straight 3 1  1381.6639 [expr -575] 0 [expr -575] 0
}

section Fiber 39 {
patch rect 1 10 1 [expr -625]  [expr -550]  625 550
layer straight  2  1  3922.9423 [expr 582.5]  0  [expr 582.5] 0
layer straight  2  1  3922.9423 [expr 545.5]  0  [expr 545.5] 0
layer straight 3 1  1151.3866 [expr -515] 0 [expr -515] 0
layer straight 3 1  1381.6639 [expr -575] 0 [expr -575] 0
}

section Fiber 40 {
patch rect 1 10 1 [expr -625]  [expr -550]  625 550
layer straight  2  1  3922.9423 [expr 582.5]  0  [expr 582.5] 0
layer straight  2  1  3922.9423 [expr 545.5]  0  [expr 545.5] 0
layer straight 3 1  1151.3866 [expr -515] 0 [expr -515] 0
layer straight 3 1  1381.6639 [expr -575] 0 [expr -575] 0
}

section Fiber 41 {
patch rect 1 10 1 [expr -625]  [expr -550]  625 550
layer straight  2  1  3922.9423 [expr 582.5]  0  [expr 582.5] 0
layer straight  2  1  3922.9423 [expr 545.5]  0  [expr 545.5] 0
layer straight 3 1  1151.3866 [expr -515] 0 [expr -515] 0
layer straight 3 1  1381.6639 [expr -575] 0 [expr -575] 0
}

section Fiber 42 {
patch rect 1 10 1 [expr -625]  [expr -550]  625 550
layer straight  2  1  3922.9423 [expr 582.5]  0  [expr 582.5] 0
layer straight  2  1  3922.9423 [expr 545.5]  0  [expr 545.5] 0
layer straight 3 1  1151.3866 [expr -515] 0 [expr -515] 0
layer straight 3 1  1381.6639 [expr -575] 0 [expr -575] 0
}

section Fiber 43 {
patch rect 1 10 1 [expr -625]  [expr -550]  625 550
layer straight  2  1  3922.9423 [expr 582.5]  0  [expr 582.5] 0
layer straight  2  1  3922.9423 [expr 545.5]  0  [expr 545.5] 0
layer straight  3   1  1152.7783 [expr -465] 0 [expr -465] 0
layer straight  3   1  1152.7783 [expr -515] 0 [expr -515] 0
layer straight  3   1  1152.7783 [expr -575] 0 [expr -575] 0
}

section Fiber 44 {
patch rect 1 10 1 [expr -625]  [expr -550]  625 550
layer straight  2  1  3922.9423 [expr 582.5]  0  [expr 582.5] 0
layer straight  2  1  3922.9423 [expr 545.5]  0  [expr 545.5] 0
layer straight  3   1  1152.7783 [expr -465] 0 [expr -465] 0
layer straight  3   1  1152.7783 [expr -515] 0 [expr -515] 0
layer straight  3   1  1152.7783 [expr -575] 0 [expr -575] 0
}

section Fiber 45 {
patch rect 1 10 1 [expr -625]  [expr -550]  625 550
layer straight  2  1  3922.9423 [expr 582.5]  0  [expr 582.5] 0
layer straight  2  1  3922.9423 [expr 545.5]  0  [expr 545.5] 0
layer straight  3   1  1152.7783 [expr -465] 0 [expr -465] 0
layer straight  3   1  1152.7783 [expr -515] 0 [expr -515] 0
layer straight  3   1  1152.7783 [expr -575] 0 [expr -575] 0
}

section Fiber 46 {
patch rect 1 10 1 [expr -625]  [expr -550]  625 550
layer straight  2  1  3922.9423 [expr 582.5]  0  [expr 582.5] 0
layer straight  2  1  3922.9423 [expr 545.5]  0  [expr 545.5] 0
layer straight  3   1  1152.7783 [expr -465] 0 [expr -465] 0
layer straight  3   1  1152.7783 [expr -515] 0 [expr -515] 0
layer straight  3   1  1152.7783 [expr -575] 0 [expr -575] 0
}

section Fiber 47 {
patch rect 1 10 1 [expr -625]  [expr -550]  625 550
layer straight  2  1  3922.9423 [expr 582.5]  0  [expr 582.5] 0
layer straight  2  1  3922.9423 [expr 545.5]  0  [expr 545.5] 0
layer straight  3   1  1152.7783 [expr -465] 0 [expr -465] 0
layer straight  3   1  1152.7783 [expr -515] 0 [expr -515] 0
layer straight  3   1  1152.7783 [expr -575] 0 [expr -575] 0
}

section Fiber 48 {
patch rect 1 10 1 [expr -625]  [expr -550]  625 550
layer straight  2  1  3922.9423 [expr 582.5]  0  [expr 582.5] 0
layer straight  2  1  3922.9423 [expr 545.5]  0  [expr 545.5] 0
layer straight  3   1  1152.7783 [expr -465] 0 [expr -465] 0
layer straight  3   1  1152.7783 [expr -515] 0 [expr -515] 0
layer straight  3   1  1152.7783 [expr -575] 0 [expr -575] 0
}

section Fiber 49 {
patch rect 1 10 1 [expr -625]  [expr -550]  625 550
layer straight  2  1  3922.9423 [expr 582.5]  0  [expr 582.5] 0
layer straight  2  1  3922.9423 [expr 545.5]  0  [expr 545.5] 0
layer straight  3   1  1152.7783 [expr -465] 0 [expr -465] 0
layer straight  3   1  1152.7783 [expr -515] 0 [expr -515] 0
layer straight  3   1  1152.7783 [expr -575] 0 [expr -575] 0
}

section Fiber 50 {
patch rect 1 10 1 [expr -625]  [expr -550]  625 550
layer straight  2  1  3922.9423 [expr 582.5]  0  [expr 582.5] 0
layer straight  2  1  3922.9423 [expr 545.5]  0  [expr 545.5] 0
layer straight  3   1  1152.7783 [expr -465] 0 [expr -465] 0
layer straight  3   1  1152.7783 [expr -515] 0 [expr -515] 0
layer straight  3   1  1152.7783 [expr -575] 0 [expr -575] 0
}

section Fiber 51 {
patch rect 1 10 1 [expr -625]  [expr -550]  625 550
layer straight  2  1  3922.9423 [expr 582.5]  0  [expr 582.5] 0
layer straight  2  1  3922.9423 [expr 545.5]  0  [expr 545.5] 0
layer straight  3   1  1152.7783 [expr -465] 0 [expr -465] 0
layer straight  3   1  1152.7783 [expr -515] 0 [expr -515] 0
layer straight  3   1  1152.7783 [expr -575] 0 [expr -575] 0
}

section Fiber 52 {
patch rect 1 10 1 [expr -625]  [expr -550]  625 550
layer straight  2  1  3922.9423 [expr 582.5]  0  [expr 582.5] 0
layer straight  2  1  3922.9423 [expr 545.5]  0  [expr 545.5] 0
layer straight  3   1  1152.7783 [expr -465] 0 [expr -465] 0
layer straight  3   1  1152.7783 [expr -515] 0 [expr -515] 0
layer straight  3   1  1152.7783 [expr -575] 0 [expr -575] 0
}

section Fiber 53 {
patch rect 1 10 1 [expr -625]  [expr -550]  625 550
layer straight  2  1  3922.9423 [expr 582.5]  0  [expr 582.5] 0
layer straight  2  1  3922.9423 [expr 545.5]  0  [expr 545.5] 0
layer straight  3   1  1152.7783 [expr -465] 0 [expr -465] 0
layer straight  3   1  1152.7783 [expr -515] 0 [expr -515] 0
layer straight  3   1  1152.7783 [expr -575] 0 [expr -575] 0
}

section Fiber 54 {
patch rect 1 10 1 [expr -625]  [expr -550]  625 550
layer straight  2  1  3922.9423 [expr 582.5]  0  [expr 582.5] 0
layer straight  2  1  3922.9423 [expr 545.5]  0  [expr 545.5] 0
layer straight  3   1  1152.7783 [expr -465] 0 [expr -465] 0
layer straight  3   1  1152.7783 [expr -515] 0 [expr -515] 0
layer straight  3   1  1152.7783 [expr -575] 0 [expr -575] 0
}

section Fiber 55 {
patch rect 1 10 1 [expr -625]  [expr -550]  625 550
layer straight  2  1  3922.9423 [expr 582.5]  0  [expr 582.5] 0
layer straight  2  1  3922.9423 [expr 545.5]  0  [expr 545.5] 0
layer straight  3   1  1152.7783 [expr -465] 0 [expr -465] 0
layer straight  3   1  1152.7783 [expr -515] 0 [expr -515] 0
layer straight  3   1  1152.7783 [expr -575] 0 [expr -575] 0
}

section Fiber 56 {
patch rect 1 10 1 [expr -625]  [expr -550]  625 550
layer straight  2  1  3922.9423 [expr 582.5]  0  [expr 582.5] 0
layer straight  2  1  3922.9423 [expr 545.5]  0  [expr 545.5] 0
layer straight  3   1  1152.7783 [expr -465] 0 [expr -465] 0
layer straight  3   1  1152.7783 [expr -515] 0 [expr -515] 0
layer straight  3   1  1152.7783 [expr -575] 0 [expr -575] 0
}

section Fiber 57 {
patch rect 1 10 1 [expr -625]  [expr -550]  625 550
layer straight  2  1  3922.9423 [expr 582.5]  0  [expr 582.5] 0
layer straight  2  1  3922.9423 [expr 545.5]  0  [expr 545.5] 0
layer straight  3   1  1152.7783 [expr -465] 0 [expr -465] 0
layer straight  3   1  1152.7783 [expr -515] 0 [expr -515] 0
layer straight  3   1  1152.7783 [expr -575] 0 [expr -575] 0
}

section Fiber 58 {
patch rect 1 10 1 [expr -625]  [expr -550]  625 550
layer straight  2  1  3922.9423 [expr 582.5]  0  [expr 582.5] 0
layer straight  2  1  3922.9423 [expr 545.5]  0  [expr 545.5] 0
layer straight  3   1  1152.7783 [expr -465] 0 [expr -465] 0
layer straight  3   1  1152.7783 [expr -515] 0 [expr -515] 0
layer straight  3   1  1152.7783 [expr -575] 0 [expr -575] 0
}

section Fiber 59 {
patch rect 1 10 1 [expr -625]  [expr -550]  625 550
layer straight  2  1  3922.9423 [expr 582.5]  0  [expr 582.5] 0
layer straight  2  1  3922.9423 [expr 545.5]  0  [expr 545.5] 0
layer straight  3   1  1152.7783 [expr -465] 0 [expr -465] 0
layer straight  3   1  1152.7783 [expr -515] 0 [expr -515] 0
layer straight  3   1  1152.7783 [expr -575] 0 [expr -575] 0
}

section Fiber 60 {
patch rect 1 10 1 [expr -625]  [expr -550]  625 550
layer straight  2  1  3922.9423 [expr 582.5]  0  [expr 582.5] 0
layer straight  2  1  3922.9423 [expr 545.5]  0  [expr 545.5] 0
layer straight  3   1  1152.7783 [expr -465] 0 [expr -465] 0
layer straight  3   1  1152.7783 [expr -515] 0 [expr -515] 0
layer straight  3   1  1152.7783 [expr -575] 0 [expr -575] 0
}

section Fiber 61 {
patch rect 1 10 1 [expr -625]  [expr -550]  625 550
layer straight  2  1  3922.9423 [expr 582.5]  0  [expr 582.5] 0
layer straight  2  1  3922.9423 [expr 545.5]  0  [expr 545.5] 0
layer straight  3   1  1152.7783 [expr -465] 0 [expr -465] 0
layer straight  3   1  1152.7783 [expr -515] 0 [expr -515] 0
layer straight  3   1  1152.7783 [expr -575] 0 [expr -575] 0
}

section Fiber 62 {
patch rect 1 10 1 [expr -625]  [expr -550]  625 550
layer straight  2  1  3922.9423 [expr 582.5]  0  [expr 582.5] 0
layer straight  2  1  3922.9423 [expr 545.5]  0  [expr 545.5] 0
layer straight  3   1  1152.7783 [expr -465] 0 [expr -465] 0
layer straight  3   1  1152.7783 [expr -515] 0 [expr -515] 0
layer straight  3   1  1152.7783 [expr -575] 0 [expr -575] 0
}

node 1 0  0.0
node 2 930  0.0
node 3 1860  0.0
node 4 2790  0.0
node 5 3720  0.0
node 6 4650  0.0
node 7 5580  0.0
node 8 6510  0.0
node 9 7440  0.0
node 10 8370  0.0
node 11 9300  0.0
node 12 10230  0.0
node 13 11160  0.0
node 14 12090  0.0
node 15 13020  0.0
node 16 13950  0.0
node 17 14880  0.0
node 18 15810  0.0
node 19 16740  0.0
node 20 17670  0.0
# ... 43 like lines cut
fix 1  1 1 0
fix  21  0  1  0
fix  43  0  1  0
fix  63  0  1  0

element  dispBeamColumn 1 1  2  5  1  1
element  dispBeamColumn 2 2  3  5  2  1
element  dispBeamColumn 3 3  4  5  3  1
element  dispBeamColumn 4 4  5  5  4  1
element  dispBeamColumn 5 5  6  5  5  1
element  dispBeamColumn 6 6  7  5  6  1
element  dispBeamColumn 7 7  8  5  7  1
element  dispBeamColumn 8 8  9  5  8  1
element  dispBeamColumn 9 9  10  5  9  1
element  dispBeamColumn 10 10  11  5  10  1
element  dispBeamColumn 11 11  12  5  11  1
element  dispBeamColumn 12 12  13  5  12  1
element  dispBeamColumn 13 13  14  5  13  1
element  dispBeamColumn 14 14  15  5  14  1
element  dispBeamColumn 15 15  16  5  15  1
element  dispBeamColumn 16 16  17  5  16  1
element  dispBeamColumn 17 17  18  5  17  1
element  dispBeamColumn 18 18  19  5  18  1
element  dispBeamColumn 19 19  20  5  19  1
element  dispBeamColumn 20 20  21  5  20  1
# ... 42 like lines cut


pattern Plain 2 "Linear" {
load  1 0.0 -1.457796e+03 0.0
load  2 0.0 -1.457796e+03 0.0
load  3 0.0 -1.457796e+03 0.0
load  4 0.0 -1.457796e+03 0.0
load  5 0.0 -1.457796e+03 0.0
load  6 0.0 -1.457796e+03 0.0
load  7 0.0 -1.457796e+03 0.0
load  8 0.0 -1.457796e+03 0.0
load  9 0.0 -1.457796e+03 0.0
load  10 0.0 -1.457796e+03 0.0
load  11 0.0 -1.457796e+03 0.0
load  12 0.0 -1.457796e+03 0.0
load  13 0.0 -1.457796e+03 0.0
load  14 0.0 -1.457796e+03 0.0
load  15 0.0 -1.457796e+03 0.0
load  16 0.0 -1.457796e+03 0.0
load  17 0.0 -1.457796e+03 0.0
load  18 0.0 -1.457796e+03 0.0
load  19 0.0 -1.457796e+03 0.0
load  20 0.0 -1.457796e+03 0.0
# ... 43 like lines cut
}

system ProfileSPD
numberer RCM
constraints Plain
test NormDispIncr 1.0e-3  50 3
integrator LoadControl 1
algorithm Newton
analysis Static

analyze 20

loadConst -time 0.0

pattern Plain 1  "Linear" {
load  30 0.0 -1.0 0.0
load  32 0.0 -1.0 0.0
load  34 0.0 -1.0 0.0
}
recorder Node -file section.out -time -node 32 -dof 2 disp
system ProfileSPD
numberer RCM
constraints Plain
test EnergyIncr 1.0e-3 500  5
integrator DisplacementControl  32  2  -0.5
algorithm Newton
analysis Static

set a 0
set b 0
set c 0
set d 0
set e 0
set f 0
set h 0
while { $a <= 1.597808e-02 && $b <= 1.597808e-02 && $c <= 7.854388e-02 && $d <= 7.854388e-02 && $e <= 7.854388e-02 && $f <= 7.854388e-02 && $h<=2000} {
analyze 1
set a [eleResponse 31 section 5 fiber -575 0 3 strain]
set b [eleResponse 32 section 1 fiber -575 0 3 strain]
set c [eleResponse 20 section 5 fiber 582.5 0 2 strain]
set d [eleResponse 21 section 1 fiber 582.5 0 2 strain]
set e [eleResponse 42 section 5 fiber 582.5 0 2 strain]
set f [eleResponse 43 section 1 fiber 582.5 0 2 strain]
set k [expr {$h+1}]
set h $k
}
