wipe

model basic -ndm 2 -ndf 3

node 1 0.0000000e+00 0.0000000e+00
node 2 2.0000000e-01 0.0000000e+00
node 3 4.0000000e-01 0.0000000e+00
node 4 6.0000000e-01 0.0000000e+00
node 5 8.0000000e-01 0.0000000e+00
node 6 1.0000000e+00 0.0000000e+00
node 7 1.2000000e+00 0.0000000e+00
node 8 1.4000000e+00 0.0000000e+00
node 9 1.6000000e+00 0.0000000e+00
node 10 1.8000000e+00 0.0000000e+00
node 11 2.0000000e+00 0.0000000e+00
node 12 2.2000000e+00 0.0000000e+00
node 13 2.4000000e+00 0.0000000e+00
node 14 2.6000000e+00 0.0000000e+00
node 15 2.8000000e+00 0.0000000e+00
node 16 3.0000000e+00 0.0000000e+00
node 17 3.2000000e+00 0.0000000e+00
node 18 3.4000000e+00 0.0000000e+00
node 19 3.6000000e+00 0.0000000e+00
node 20 3.8000000e+00 0.0000000e+00
# ... 281 like lines cut

fix 1  0 1 0
fix 94  1 1 0
fix 208  0 1 0
fix 301  0 1 0

geomTransf Linear 1

uniaxialMaterial Concrete02 1 -2.8800000e+07 -1.6044568e-03 -2.8800000e+07 -3.5000000e-03 2.0000000e-01 2.8800000e+06 3.5900000e+10
uniaxialMaterial Steel01    21  3.4800000e+08 2.0000000e+11 0.0000000e+00

section Fiber 1 {
    patch rect 1 1 30 -2.0000000e-01 -1.0750000e+00 0.0000000e+00 1.0750000e+00
    patch rect 1 1 30 -1.2500000e+00 -2.5000000e-01 -2.0000000e-01 2.5000000e-01
    layer straight 21 16 4.9087385e-04 -4.0000000e-02 -1.0350000e+00 -4.0000000e-02 2.1000000e-01
    layer straight 21 5 4.9087385e-04 -1.2100000e+00 -2.1000000e-01 -1.2100000e+00 2.1000000e-01
    layer straight 21 6 4.9087385e-04 -1.1600000e+00 -2.1000000e-01 -1.1600000e+00 2.1000000e-01
}

element dispBeamColumn 1 1 2 5 1 1
element dispBeamColumn 2 2 3 5 1 1
element dispBeamColumn 3 3 4 5 1 1
element dispBeamColumn 4 4 5 5 1 1
element dispBeamColumn 5 5 6 5 1 1
element dispBeamColumn 6 6 7 5 1 1
element dispBeamColumn 7 7 8 5 1 1
element dispBeamColumn 8 8 9 5 1 1
element dispBeamColumn 9 9 10 5 1 1
element dispBeamColumn 10 10 11 5 1 1
element dispBeamColumn 11 11 12 5 1 1
element dispBeamColumn 12 12 13 5 1 1
element dispBeamColumn 13 13 14 5 1 1
element dispBeamColumn 14 14 15 5 1 1
element dispBeamColumn 15 15 16 5 1 1
element dispBeamColumn 16 16 17 5 1 1
element dispBeamColumn 17 17 18 5 1 1
element dispBeamColumn 18 18 19 5 1 1
element dispBeamColumn 19 19 20 5 1 1
element dispBeamColumn 20 20 21 5 1 1
# ... 280 like lines cut

timeSeries Linear 1

pattern Plain 1 1 {
load 151 0 -5.0000000e+05 0
load 156 0 -5.0000000e+05 0
load 146 0 -5.0000000e+05 0
}

system BandGeneral
numberer RCM
constraints Plain
test NormDispIncr 1.0e-3  100 3
integrator LoadControl 0.005
algorithm Newton
analysis Static

recorder Node -file rc_section_displX.out -time -node 1 2 3 4 5 6 7 8 9 10 11 12 13 14 15 16 17 18 19 20 21 22 23 24 25 26 27 28 29 30 31 32 33 34 35 36 37 38 39 40 41 42 43 44 45 46 47 48 49 50 51 52 53 54 55 56 57 58 59 60 61 62 63 64 65 66 67 68 69 70 71 72 73 74 75 76 77 78 79 80 81 82 83 84 85 86 87 88 89 90 91 92 93 94 95 96 97 98 99 100 101 102 103 104 105 106 107 108 109 110 111 112 113 11
recorder Node -file rc_section_displY.out -time -node 1 2 3 4 5 6 7 8 9 10 11 12 13 14 15 16 17 18 19 20 21 22 23 24 25 26 27 28 29 30 31 32 33 34 35 36 37 38 39 40 41 42 43 44 45 46 47 48 49 50 51 52 53 54 55 56 57 58 59 60 61 62 63 64 65 66 67 68 69 70 71 72 73 74 75 76 77 78 79 80 81 82 83 84 85 86 87 88 89 90 91 92 93 94 95 96 97 98 99 100 101 102 103 104 105 106 107 108 109 110 111 112 113 11
recorder Element -file rc_section_eleGlobalForce.out -time -ele 1 2 3 4 5 6 7 8 9 10 11 12 13 14 15 16 17 18 19 20 21 22 23 24 25 26 27 28 29 30 31 32 33 34 35 36 37 38 39 40 41 42 43 44 45 46 47 48 49 50 51 52 53 54 55 56 57 58 59 60 61 62 63 64 65 66 67 68 69 70 71 72 73 74 75 76 77 78 79 80 81 82 83 84 85 86 87 88 89 90 91 92 93 94 95 96 97 98 99 100 101 102 103 104 105 106 107 108 109 110 111 
analyze 200